Circuit: * C:\Users\hp\Documents\spicelt\master_slave_flipflop.asc

WARNING: Node N006 is floating.
WARNING: Node N015 is floating.
WARNING: Node N002 is floating.
WARNING: Node N011 is floating.
WARNING: Node N016 is floating.
WARNING: Node N020 is floating.
WARNING: Node N003 is floating.
WARNING: Node N012 is floating.
WARNING: Node N004 is floating.
WARNING: Node N013 is floating.
WARNING: Node N017 is floating.
WARNING: Node N021 is floating.
WARNING: Node N005 is floating.
WARNING: Node N014 is floating.

Instance "m3": Length shorter than recommended for a level 1 MOSFET.
Instance "m3": Width narrower than recommended for a level 1 MOSFET.
Instance "m1": Length shorter than recommended for a level 1 MOSFET.
Instance "m1": Width narrower than recommended for a level 1 MOSFET.
Instance "m5": Length shorter than recommended for a level 1 MOSFET.
Instance "m5": Width narrower than recommended for a level 1 MOSFET.
Instance "m7": Length shorter than recommended for a level 1 MOSFET.
Instance "m7": Width narrower than recommended for a level 1 MOSFET.
Instance "m9": Length shorter than recommended for a level 1 MOSFET.
Instance "m9": Width narrower than recommended for a level 1 MOSFET.
Instance "m11": Length shorter than recommended for a level 1 MOSFET.
Instance "m11": Width narrower than recommended for a level 1 MOSFET.
Instance "m13": Length shorter than recommended for a level 1 MOSFET.
Instance "m13": Width narrower than recommended for a level 1 MOSFET.
Instance "m15": Length shorter than recommended for a level 1 MOSFET.
Instance "m15": Width narrower than recommended for a level 1 MOSFET.
Instance "m17": Length shorter than recommended for a level 1 MOSFET.
Instance "m17": Width narrower than recommended for a level 1 MOSFET.
Instance "m19": Length shorter than recommended for a level 1 MOSFET.
Instance "m19": Width narrower than recommended for a level 1 MOSFET.
Instance "m21": Length shorter than recommended for a level 1 MOSFET.
Instance "m21": Width narrower than recommended for a level 1 MOSFET.
Instance "m4": Length shorter than recommended for a level 1 MOSFET.
Instance "m4": Width narrower than recommended for a level 1 MOSFET.
Instance "m2": Length shorter than recommended for a level 1 MOSFET.
Instance "m2": Width narrower than recommended for a level 1 MOSFET.
Instance "m6": Length shorter than recommended for a level 1 MOSFET.
Instance "m6": Width narrower than recommended for a level 1 MOSFET.
Instance "m8": Length shorter than recommended for a level 1 MOSFET.
Instance "m8": Width narrower than recommended for a level 1 MOSFET.
Instance "m10": Length shorter than recommended for a level 1 MOSFET.
Instance "m10": Width narrower than recommended for a level 1 MOSFET.
Instance "m12": Length shorter than recommended for a level 1 MOSFET.
Instance "m12": Width narrower than recommended for a level 1 MOSFET.
Instance "m14": Length shorter than recommended for a level 1 MOSFET.
Instance "m14": Width narrower than recommended for a level 1 MOSFET.
Instance "m16": Length shorter than recommended for a level 1 MOSFET.
Instance "m16": Width narrower than recommended for a level 1 MOSFET.
Instance "m18": Length shorter than recommended for a level 1 MOSFET.
Instance "m18": Width narrower than recommended for a level 1 MOSFET.
Instance "m20": Length shorter than recommended for a level 1 MOSFET.
Instance "m20": Width narrower than recommended for a level 1 MOSFET.
Instance "m22": Length shorter than recommended for a level 1 MOSFET.
Instance "m22": Width narrower than recommended for a level 1 MOSFET.
Direct Newton iteration for .op point succeeded.
Heightened Def Con from 7.24294e-13 ++++++++++++++++++++++to 1e-12
Heightened Def Con from 1e-12 +++++++++++to 1.07656e-11
Heightened Def Con from 1.07656e-11 +to 1.08422e-10
Heightened Def Con from 1.40007e-08 ++++++++++++++++++++to 1.40007e-08
Heightened Def Con from 1.40007e-08 +++++++++to 1.40007e-08
Heightened Def Con from 1.40007e-08 +to 1.40008e-08
Heightened Def Con from 4.20007e-08 +++++++++++++++++++++to 4.20007e-08
Heightened Def Con from 4.20007e-08 ++++++++++to 4.20007e-08
Heightened Def Con from 4.20007e-08 +to 4.20008e-08
Heightened Def Con from 5.60007e-08 ++++++++++++++++++++to 5.60007e-08
Heightened Def Con from 5.60007e-08 +++++++++to 5.60007e-08
Heightened Def Con from 5.60007e-08 +to 5.60008e-08
Heightened Def Con from 7.00013e-08 to 7.00013e-08
Heightened Def Con from 8.40007e-08 +++++++++++++++++++++to 8.40007e-08
Heightened Def Con from 8.40007e-08 ++++++++++to 8.40007e-08
Heightened Def Con from 8.40007e-08 +to 8.40008e-08
Heightened Def Con from 9.00013e-08 to 9.00013e-08

Date: Tue Jul 11 12:58:43 2023
Total elapsed time: 0.502 seconds.

tnom = 27
temp = 27
method = modified trap
totiter = 24927
traniter = 24895
tranpoints = 4227
accept = 2433
rejected = 1969
matrix size = 29
fillins = 2
solver = Normal
Avg thread counts: 1.1/1.5/1.5/1.1
Matrix Compiler1: 3.20 KB object code size  1.4/0.9/[0.5]
Matrix Compiler2: 3.48 KB object code size  0.8/1.1/[0.5]

